Kraftwerk @ Bestival (Isle of Wight - England) - 12th september 2009 - Nafoute TV DVD

Tracklist :
       1. The Man Machine
       2.HomeComputer
       3. Vitamin
       4. Autobahn
       5. Computer love
       6. The model
       7. Showroom dummies
       8. Trans Europe Express
       9. Numbers
      10. ComputerWorld
      11. AeroDynamik
      12. Music Non Stop

Video & Authoring : Nafoute

==================================== 
General Informations : 
==================================== 
Date : 12.09.2009
Location : Isle of Wight
Duration : 64'
Type : Video 
Support : DVD+/-R 
Performance : Live 
Source : HD (H.164)
Integral : No 
Camera : Amateur (myself) 
Nb Cam. : 1 
Format : PAL
Sound : AC3 (From camera tracks 1 to 7, from HD-MD tracks 7 to 12)
Ratio : 16/9 
Authoring : Yes (By Titles) 
Menu : Yes 
==================================== 
Marks : 
==================================== 
Picture : G
Audio :   G

<<<   NAFOUTE TV 2009   >>>
